LAMMPS (29 Aug 2024 - Update 1)
Loaded 1 plugins from E:\lammps\LAMMPS 64-bit 29Aug2024-MSMPI\plugins
# ---------------- initialization ----------------
units           real
atom_style      full
region box block -5 10 -5 10 -5 10

boundary p p p
create_box 2 box  bond/types 1 angle/types 1                 extra/bond/per/atom 2 extra/angle/per/atom 1 extra/special/per/atom 2
Created orthogonal box = (-5 -5 -5) to (10 10 10)
mass 2 1.008
mass 1 15.9994

pair_style lj/cut/coul/cut 10.0
pair_coeff 1 1 0.1553 3.166
pair_coeff 1 2 0.0    1.0
pair_coeff 2 2 0.0    1.0

bond_style zero
bond_coeff 1 1.0

angle_style zero
angle_coeff 1 109.47

molecule water spce.mol
Read molecule template water:
# Water molecule. SPC/E geometry
  1 molecules
  0 fragments
  3 atoms with max type 2
  2 bonds with max type 1
  1 angles with max type 1
  0 dihedrals with max type 0
  0 impropers with max type 0
create_atoms 0 random 33 34564 NULL mol water 25367 overlap 2.5
Created 99 atoms

# ---- 约束（水分子刚性） -----------------------------
group           water type 1 2
99 atoms in group water
fix             shakeH2O water shake 0.0001 20 0 b 1 a 1   # 约束 bond=1,angle=1
Finding SHAKE clusters ...
       0 = # of size 2 clusters
       0 = # of size 3 clusters
       0 = # of size 4 clusters
      33 = # of frozen angles
  find clusters CPU = 0.001 seconds

# ---- 积分器和控温 ----------------
timestep        2.0    # 刚性水可用 2 fs
velocity        all create 300 492845 dist gaussian
fix             nvt all nvt temp 300 300 100

thermo          1000
run             50000
Generated 0 of 1 mixed pair_coeff terms from geometric mixing rule
Step          Temp          E_pair         E_mol          TotEng         Press
0   300           -118.81414      0             -60.688345     -3317.8072
Averages over the last 26 of 51 rows, steps 25000 to 50000:
Temp E_pair E_mol TotEng Press
289.801 -266.334 0 -210.185 -679.836
Loop time of 3.34456 on 1 procs for 50000 steps with 99 atoms

#--------------------COMPUTE CHUNK-----------------------

compute		ch_id all chunk/atom bin/1d x lower 10 units box

fix 	    	ave_ch all ave/chunk 1 100 200 ch_id density/mass file density.out

dump      	1 all atom 10000 shock_movie.lammpstrj

#--------------------define piston-----------------------

region 		piston block INF -580 INF INF INF INF units box
group          piston region piston
0 atoms in group piston

#-------------- Shock -------------------------------------------

fix move_pist piston move linear 0.02 0 0 units box

run            100000
Generated 0 of 1 mixed pair_coeff terms from geometric mixing rule
Step          Temp          E_pair         E_mol          TotEng         Press
50000   273.12853     -296.5579       0             -243.63852     -2078.0002
Averages over the last 51 of 101 rows, steps 100000 to 150000:
Temp E_pair E_mol TotEng Press
300.947 -272.328 0 -214.018 -868.103
Loop time of 6.58716 on 1 procs for 100000 steps with 99 atoms

unfix move_pist

run            400000
Generated 0 of 1 mixed pair_coeff terms from geometric mixing rule
Step          Temp          E_pair         E_mol          TotEng         Press
150000   295.95307     -476.13987      0             -418.79818     -2543.4105
Averages over the last 201 of 401 rows, steps 350000 to 550000:
Temp E_pair E_mol TotEng Press
297.445 -72.5159 0 -14.8851 782.538
Loop time of 26.4237 on 1 procs for 400000 steps with 99 atoms
